# Simplified field table to run the field table unit tests
 "TRACER", "ocean_mod", "biotic1"
           "diff_horiz", "linear", "slope=ok"
           "longname", "biotic one" /
 "TRACER", "ocean_mod", "age_ctl" /
 "TRACER", "ocean_mod" "immadeup2"
           "longname", "im_made_up2_for_testing"
           "units", "atomic_units"
           "profile_type", "profile", "surface_value=1.e-12,bottom_value=1.e-9"/
 "TRACER", "atmos_mod","radon"
           "longname","radon-222"
           "units","VMR*1E21"
           "profile_type","fixed","surface_value=0.0E+00"
           "convection","all"/
 "TRACER", "atmos_mod" "immadeup"
           "longname", "im_made_up_for_testing"
           "units", "hbar"
           "profile_type", "profile", "surface_value=1.e-12,top_value=1.e-15"/
 "TRACER", "land_mod", "sphum"
           "longname",     "specific humidity"
            "units",        "kg/kg" /
